go atlas
TITLE pn Diode
#
mesh space.mult=1
#
x.mesh location = 0 spacing=0.1
x.mesh location = 10 spacing=0.1
#
y.mesh location = 0 spac=0.1
y.mesh location = 4 spac=0.1
#
region num=1 Silicon x.min=0 x.max=10 y.min=0 y.max=4
#
electrode name=anode top x.min=1 x.max=9
electrode name=cathode bottom x.min=1 x.max=9
#
doping uniform p.type conc=5e15 x.min=0 x.max=10 y.min=0 y.max=2
doping uniform n.type conc=5e16 x.min=0 x.max=10 y.min=2 y.max=4
#
model bipolar
#
method newton trap
#
solve init
#
solve vcathode=0 vanode=0
save outf=diode.str
log outf=diode.log
solve vcathode=0 vanode=-3 vstep=0.5 vfinal =3 name=anode
#
log off
#
tonyplot diode.log
tonyplot diode.str
#
quit
